Version 4.1
SHEET 1 880 680
WIRE 128 -192 64 -192
WIRE 432 -192 208 -192
WIRE 432 -96 432 -192
WIRE 432 -96 144 -96
WIRE 320 0 192 0
WIRE 144 64 144 -96
WIRE 64 80 64 -192
WIRE 80 80 80 64
WIRE 80 80 64 80
WIRE 320 96 320 80
WIRE 192 112 192 0
WIRE -32 128 -80 128
WIRE 80 128 80 80
WIRE 80 128 48 128
WIRE 160 128 80 128
WIRE 432 144 432 -96
WIRE 432 144 224 144
WIRE 464 144 432 144
WIRE 160 160 128 160
WIRE 128 176 128 160
WIRE 288 176 192 176
WIRE -80 224 -80 128
WIRE 288 256 288 176
WIRE -80 336 -80 304
WIRE 288 368 288 336
FLAG -80 336 0
FLAG 320 96 0
FLAG 288 368 0
FLAG 128 176 0
FLAG 464 144 Y
IOPIN 464 144 Out
SYMBOL OpAmps\\UniversalOpAmp2 192 144 R0
SYMATTR InstName U1
SYMBOL voltage 320 -16 R0
WINDOW 123 0 0 Left 0
WINDOW 39 0 0 Left 0
SYMATTR InstName V1
SYMATTR Value 15
SYMBOL voltage 288 240 R0
WINDOW 123 0 0 Left 0
WINDOW 39 0 0 Left 0
SYMATTR InstName V2
SYMATTR Value -15
SYMBOL voltage -80 208 R0
WINDOW 123 0 0 Left 0
WINDOW 39 0 0 Left 0
SYMATTR InstName V3
SYMATTR Value PULSE(-1 1 0 1u 1u 49u 100u)
SYMBOL res 64 112 R90
WINDOW 0 0 56 VBottom 2
WINDOW 3 32 56 VTop 2
SYMATTR InstName R1
SYMATTR Value 10k
SYMBOL cap 144 48 R90
WINDOW 0 0 32 VBottom 2
WINDOW 3 32 32 VTop 2
SYMATTR InstName C1
SYMATTR Value 10n
SYMBOL res 224 -208 R90
WINDOW 0 0 56 VBottom 2
WINDOW 3 32 56 VTop 2
SYMATTR InstName R2
SYMATTR Value 100k
TEXT -112 392 Left 2 !.tran 10m
TEXT -184 0 Left 2 !.ic V(y)=0
